CM ============================================================
CM  NEC2 Best-Antenna Deck — generated by nec2_length_optimizer
CM  Wire length : 35.000 m
CM  CP length   : 10.000 m  (L-shaped)
CM  CP score    : 7.3772
CM      40  7.1000 MHz  VSWR=4.86
CM      30  10.1250 MHz  VSWR=1.89
CM      20  14.1750 MHz  VSWR=5.43
CM      17  18.1180 MHz  VSWR=7.43
CM      15  21.2250 MHz  VSWR=3.80
CM      12  24.9400 MHz  VSWR=5.09
CM      10  28.5000 MHz  VSWR=6.29
CM ============================================================
CE
GW 1 139 0.0 0.0 8.000 35.000 0.0 8.000 0.00100
GW 2 29 0.0 0.0 8.000 0.0 0.0 0.500 0.00100
GW 3 9 0.0 0.0 0.500 -2.500 0.0 0.500 0.00100
GE 0
GN 2 0 0 0 13.0 0.0050
EX 0 1 1 0 1.0 0.0
FR 0 1 0 0 7.1000 0
RP 0 37 73 1000 0.0 0.0 2.5000 5.0000 0.0
FR 0 1 0 0 10.1250 0
RP 0 37 73 1000 0.0 0.0 2.5000 5.0000 0.0
FR 0 1 0 0 14.1750 0
RP 0 37 73 1000 0.0 0.0 2.5000 5.0000 0.0
FR 0 1 0 0 18.1180 0
RP 0 37 73 1000 0.0 0.0 2.5000 5.0000 0.0
FR 0 1 0 0 21.2250 0
RP 0 37 73 1000 0.0 0.0 2.5000 5.0000 0.0
FR 0 1 0 0 24.9400 0
RP 0 37 73 1000 0.0 0.0 2.5000 5.0000 0.0
FR 0 1 0 0 28.5000 0
RP 0 37 73 1000 0.0 0.0 2.5000 5.0000 0.0
EN
